testData/tamu2000/pfcases_100_zone2326/Equ_tx2000_hr_4639_mod_v23_zone23_26_pslf.raw
0  100.000 
THIS IS A SYNTHETIC POWER SYSTEM MODEL THAT DOES NOT REPRESE
DATA RESEARCH PROJECT AND CONTAINS NO CEII.
1004,  2,  48.507,  -26.289,  0.000,  0.000,  1,  1.02004,  -22.3091,  'O DONNEL',  230.00,  9
1009,  2,  3.465,  -3.231,  0.000,  0.000,  1,  1.00946,  -13.4075,  'IRAAN 2 ',  13.800,  9
1012,  1,  -0.886,  -15.551,  0.000,  0.000,  1,  0.99631,  -32.8081,  'SANDERSO',  115.00,  9
1021,  2,  35.161,  -18.119,  0.000,  0.000,  1,  1.00247,  -12.8503,  'BIG SPRI',  13.800,  9
1023,  2,  42.583,  -1.207,  0.000,  0.000,  1,  1.01000,  -11.4879,  'O DONNEL',  13.800,  9
1026,  2,  44.955,  -11.167,  0.000,  0.000,  1,  1.00107,  -10.3137,  'BIG SPRI',  13.800,  9
1033,  2,  10.526,  -9.953,  0.000,  0.000,  1,  1.00000,  -24.2168,  'MCCAMEY ',  230.00,  9
1035,  2,  53.721,  -12.872,  0.000,  0.000,  1,  1.00293,  -9.1980,  'BIG SPRI',  13.800,  9
1039,  2,  29.010,  -6.888,  0.000,  0.000,  1,  1.00000,  -10.7977,  'FORT STO',  22.000,  9
1042,  2,  61.319,  -5.626,  0.000,  0.000,  1,  1.00000,  -4.5959,  'FORSAN 1',  13.800,  9
1043,  2,  45.485,  -6.011,  0.000,  0.000,  1,  1.00000,  -8.6363,  'FORSAN 2',  13.800,  9
1046,  1,  8.086,  -14.534,  0.000,  0.000,  1,  1.02999,  -28.1978,  'OZONA 0 ',  115.00,  9
1048,  2,  57.561,  -7.136,  0.000,  0.000,  1,  1.00000,  -19.8208,  'MONAHANS',  18.000,  9
1049,  2,  33.874,  -1.885,  0.000,  0.000,  1,  1.00000,  -16.9421,  'MONAHANS',  18.000,  9
1053,  2,  36.008,  -8.615,  0.000,  0.000,  1,  1.00700,  -24.3616,  'MONAHANS',  230.00,  9
1057,  2,  80.893,  -19.627,  0.000,  0.000,  1,  1.00091,  -13.2096,  'LENORAH ',  18.000,  9
1066,  2,  65.787,  -6.012,  0.000,  0.000,  1,  1.00000,  -5.1702,  'BIG SPRI',  13.800,  9
1070,  2,  6.402,  -5.146,  0.000,  0.000,  1,  1.04000,  -12.5448,  'IRAAN 1 ',  13.800,  9
1072,  3,  28.016,  -1.669,  0.000,  0.000,  1,  1.01000,  -31.8411,  'ODESSA 1',  18.000,  9
1073,  2,  20.782,  -1.205,  0.000,  0.000,  1,  1.01000,  -28.5350,  'ODESSA 1',  18.000,  9
1074,  2,  21.665,  -0.145,  0.000,  0.000,  1,  1.01000,  -28.7303,  'ODESSA 1',  18.000,  9
1075,  2,  26.307,  -0.195,  0.000,  0.000,  1,  1.01000,  -29.5383,  'ODESSA 1',  18.000,  9
1076,  2,  58.905,  -3.069,  0.000,  0.000,  1,  1.01000,  -31.1714,  'ODESSA 1',  18.000,  9
1077,  2,  22.282,  -0.339,  0.000,  0.000,  1,  1.01000,  -28.8613,  'ODESSA 1',  18.000,  9
1081,  2,  51.609,  -30.740,  0.000,  0.000,  1,  1.01000,  -25.5899,  'ODESSA 1',  230.00,  9
1082,  2,  35.202,  -23.293,  0.000,  0.000,  1,  1.02029,  -14.0612,  'FORT STO',  115.00,  9
1084,  2,  84.472,  -42.789,  0.000,  0.000,  1,  1.02982,  -21.4180,  'BIG SPRI',  115.00,  9
1088,  2,  47.756,  -5.505,  0.000,  0.000,  1,  1.00000,  -15.6469,  'MCCAMEY ',  115.00,  9
1090,  2,  120.066,  0.207,  0.000,  0.000,  1,  1.02000,  -29.5373,  'GOLDSMIT',  115.00,  9
2004,  2,  84.580,  -23.241,  0.000,  0.000,  2,  1.02075,  -52.4323,  'SAVOY 2 ',  13.800,  11
2005,  2,  73.648,  -20.287,  0.000,  0.000,  2,  1.02000,  -52.2711,  'SAVOY 3 ',  13.800,  11
2006,  2,  50.970,  -12.854,  0.000,  0.000,  2,  1.02000,  -51.6527,  'SAVOY 4 ',  13.800,  11
2013,  2,  1.167,  -11.489,  0.000,  0.000,  2,  1.04249,  -35.8414,  'PANHANDL',  18.000,  10
2019,  2,  -6.131,  28.123,  0.000,  0.000,  2,  1.04000,  -33.5777,  'PANHANDL',  20.000,  10
2024,  2,  62.045,  -18.443,  0.000,  0.000,  2,  1.02526,  -52.8243,  'PARIS 2 ',  13.800,  11
2057,  3,  145.984,  -72.886,  0.000,  0.000,  2,  0.99000,  -43.8152,  'WICHITA ',  18.000,  11
2059,  2,  2.170,  -0.420,  0.000,  0.000,  2,  1.02736,  -31.1064,  'WHITE DE',  13.800,  10
2062,  2,  61.163,  -24.131,  0.000,  0.000,  2,  1.02000,  -36.3816,  'VERNON 1',  18.000,  10
2100,  2,  3.180,  -0.695,  0.000,  0.000,  2,  1.02115,  -29.6586,  'RALLS 1 ',  18.000,  10
2103,  2,  113.020,  -23.223,  0.000,  0.000,  2,  1.02408,  -53.2333,  'SHERMAN ',  20.000,  11
2104,  2,  84.942,  -17.343,  0.000,  0.000,  2,  1.02294,  -53.0623,  'SHERMAN ',  20.000,  11
2105,  2,  53.891,  -12.408,  0.000,  0.000,  2,  1.02030,  -52.6386,  'SHERMAN ',  20.000,  11
2115,  2,  41.732,  -13.447,  0.000,  0.000,  2,  1.02229,  -52.2707,  'PARIS 1 ',  13.800,  11
2116,  2,  74.193,  -22.326,  0.000,  0.000,  2,  1.02588,  -52.8336,  'PARIS 1 ',  13.800,  11
2117,  2,  37.502,  -11.842,  0.000,  0.000,  2,  1.02081,  -52.0893,  'PARIS 1 ',  13.800,  11
2118,  2,  35.755,  -11.048,  0.000,  0.000,  2,  1.01989,  -51.9412,  'PARIS 1 ',  13.800,  11
2119,  2,  59.439,  -18.444,  0.000,  0.000,  2,  1.02502,  -52.7014,  'PARIS 1 ',  13.800,  11
2120,  2,  36.890,  -11.465,  0.000,  0.000,  2,  1.02033,  -51.9992,  'PARIS 1 ',  13.800,  11
2123,  2,  12.511,  -6.159,  0.000,  0.000,  2,  1.03608,  -34.0441,  'PANHANDL',  161.00,  10
2127,  2,  156.628,  -181.633,  0.000,  0.000,  2,  1.05135,  -37.0737,  'MIAMI 0 ',  500.00,  10
3001,  1,  0.000,  0.000,  0.000,  0.000,  3,  1.01972,  -73.0699,  'KERRVILL',  230.00,  28
3002,  1,  0.000,  0.000,  0.000,  0.000,  3,  1.01375,  -74.9595,  'KERRVILL',  115.00,  28
3005,  1,  0.000,  0.000,  0.000,  0.000,  3,  1.01088,  -79.7612,  'LEAKEY 0',  115.00,  28
3008,  1,  -3.025,  1.976,  0.000,  0.000,  3,  1.00119,  -39.9868,  'COLEMAN ',  115.00,  27
3009,  1,  0.000,  0.000,  0.000,  0.000,  3,  1.02624,  -34.7642,  'SONORA 0',  115.00,  28
3010,  1,  0.000,  0.000,  0.000,  0.000,  3,  1.01346,  -77.0762,  'CAMP WOO',  115.00,  28
3011,  1,  0.000,  0.000,  0.000,  0.000,  3,  1.00380,  -79.4261,  'LLANO 0 ',  115.00,  28
3012,  1,  0.000,  0.000,  0.000,  0.000,  3,  0.99107,  -80.7494,  'WILLOW C',  115.00,  28
3014,  1,  0.000,  0.000,  0.000,  0.000,  3,  1.02241,  -69.1951,  'KINGSLAN',  115.00,  28
3017,  2,  20.998,  2.901,  0.000,  0.000,  3,  1.01000,  -19.7841,  'BLACKWEL',  18.000,  27
3018,  1,  -19.718,  -6.628,  0.000,  0.000,  3,  1.02609,  -33.3331,  'CHRISTOV',  230.00,  27
3019,  1,  99.053,  -39.236,  0.000,  0.000,  3,  1.02998,  -34.2528,  'CHRISTOV',  115.00,  27
3020,  2,  0.000,  0.000,  0.000,  0.000,  3,  1.03000,  -29.6199,  'CHRISTOV',  13.800,  27
3024,  1,  0.000,  0.000,  0.000,  0.000,  3,  1.02756,  -34.6710,  'ELDORADO',  115.00,  28
3025,  1,  0.000,  0.000,  0.000,  0.000,  3,  0.99203,  -53.4250,  'SAN SABA',  115.00,  28
3028,  2,  9.925,  -11.999,  0.000,  0.000,  3,  1.04000,  -40.1029,  'ABILENE ',  18.000,  27
3029,  1,  0.000,  0.000,  0.000,  0.000,  3,  1.02628,  -62.5697,  'LOMETA 0',  115.00,  28
3034,  2,  41.171,  0.208,  0.000,  0.000,  3,  1.03000,  -11.8838,  'SNYDER 1',  22.000,  27
3035,  1,  0.000,  0.000,  0.000,  0.000,  3,  0.99837,  -50.8702,  'CHEROKEE',  115.00,  28
3036,  1,  0.000,  0.000,  0.000,  0.000,  3,  0.99669,  -46.6211,  'RICHLAND',  115.00,  28
3039,  2,  38.650,  -11.082,  0.000,  0.000,  3,  1.04000,  -26.0937,  'ROSCOE 2',  13.800,  27
3045,  2,  -3.770,  -7.703,  0.000,  0.000,  3,  1.04000,  -27.0490,  'SILVER 4',  13.800,  27
3048,  2,  67.093,  -578.668,  0.000,  0.000,  3,  1.03548,  -43.6525,  'ROSCOE 5',  500.00,  27
3050,  1,  0.056,  -62.016,  0.000,  0.000,  3,  0.97674,  -43.3224,  'DEL RIO ',  230.00,  28
3051,  1,  0.008,  -18.620,  0.000,  0.000,  3,  0.96484,  -44.4003,  'DEL RIO ',  115.00,  28
3052,  1,  0.000,  0.000,  0.000,  0.000,  3,  1.01560,  -77.5973,  'HUNT 0  ',  115.00,  28
3055,  2,  37.299,  -11.324,  0.000,  0.000,  3,  1.04000,  -28.1456,  'WINGATE ',  13.800,  27
3056,  2,  32.076,  -2.764,  0.000,  0.000,  3,  1.04000,  -25.8314,  'WINGATE ',  13.800,  27
3057,  2,  32.538,  -3.224,  0.000,  0.000,  3,  1.04000,  -25.9786,  'WINGATE ',  13.800,  27
3060,  2,  11.460,  -0.578,  0.000,  0.000,  3,  1.04000,  -20.8728,  'STERLING',  18.000,  27
3061,  2,  10.087,  -0.721,  0.000,  0.000,  3,  1.04000,  -22.8199,  'STERLING',  18.000,  27
3062,  2,  14.909,  -5.073,  0.000,  0.000,  3,  1.04000,  -25.2242,  'STERLING',  18.000,  27
3063,  2,  8.193,  -0.866,  0.000,  0.000,  3,  1.04000,  -24.1892,  'STERLING',  18.000,  27
3065,  2,  8.052,  -8.659,  0.000,  0.000,  3,  1.01285,  -17.6980,  'ROSCOE 4',  18.000,  27
3066,  1,  0.000,  0.000,  0.000,  0.000,  3,  1.00971,  -46.8481,  'BRADY 0 ',  115.00,  28
3068,  2,  42.733,  1.972,  0.000,  0.000,  3,  1.04000,  -19.9046,  'TRENT 1 ',  20.000,  27
3071,  2,  17.999,  -2.826,  0.000,  0.000,  3,  1.00699,  -19.5719,  'NOLAN 1 ',  24.000,  27
3073,  1,  0.000,  0.000,  0.000,  0.000,  3,  1.00800,  -75.7588,  'BRACKETT',  115.00,  28
3074,  2,  0.000,  0.000,  0.000,  0.000,  3,  1.00000,  -73.4973,  'BRACKETT',  13.800,  28
3075,  1,  0.000,  0.000,  0.000,  0.000,  3,  1.01903,  -41.7669,  'MASON 0 ',  115.00,  28
3076,  1,  0.000,  0.000,  0.000,  0.000,  3,  1.00972,  -76.4349,  'BRACKETT',  115.00,  28
3081,  2,  27.286,  -4.795,  0.000,  0.000,  3,  1.04000,  -23.2898,  'HERMLEIG',  20.000,  27
3084,  2,  35.095,  -10.847,  0.000,  0.000,  3,  1.00000,  -22.4288,  'MERKEL 1',  13.800,  27
3086,  2,  19.419,  -2.600,  0.000,  0.000,  3,  1.00000,  -16.1420,  'LORAINE ',  13.200,  27
3087,  2,  21.397,  -2.484,  0.000,  0.000,  3,  1.00000,  -14.8908,  'LORAINE ',  13.200,  27
3092,  2,  29.554,  -3.209,  0.000,  0.000,  3,  1.04000,  -30.5671,  'ABILENE ',  13.800,  27
3093,  1,  0.000,  0.000,  0.000,  0.000,  3,  1.01534,  -77.4237,  'ROCKSPRI',  115.00,  28
3095,  2,  31.504,  8.285,  0.000,  0.000,  3,  1.04000,  -19.8581,  'MERKEL 2',  18.000,  27
3098,  2,  11.853,  -2.350,  0.000,  0.000,  3,  1.04000,  -17.0915,  'FLUVANNA',  13.800,  27
3101,  1,  0.000,  0.000,  0.000,  0.000,  3,  1.00352,  -60.1142,  'BUCHANAN',  115.00,  28
3104,  1,  0.000,  0.000,  0.000,  0.000,  3,  1.01066,  -61.9064,  'BUCHANAN',  115.00,  28
3105,  1,  -9.684,  0.740,  0.000,  0.000,  3,  1.01087,  -61.1950,  'BUCHANAN',  13.200,  28
3106,  3,  0.000,  0.000,  0.000,  0.000,  3,  1.00000,  -58.6258,  'BUCHANAN',  13.200,  28
3107,  1,  0.000,  0.000,  0.000,  0.000,  3,  1.01304,  -76.2881,  'INGRAM 0',  115.00,  28
3108,  1,  0.000,  0.000,  0.000,  0.000,  3,  1.01588,  -66.2417,  'KEMPNER ',  115.00,  28
3110,  2,  11.851,  -1.950,  0.000,  0.000,  3,  1.04000,  -17.7308,  'FLUVANNA',  13.800,  27
3112,  2,  14.490,  -6.451,  0.000,  0.000,  3,  1.00038,  -16.2106,  'STERLING',  18.000,  27
3113,  2,  14.490,  -6.451,  0.000,  0.000,  3,  1.00038,  -16.2106,  'STERLING',  18.000,  27
3117,  2,  51.639,  -4.625,  0.000,  0.000,  3,  1.00000,  -15.7670,  'SYNDER 1',  13.800,  27
3118,  2,  50.334,  -8.438,  0.000,  0.000,  3,  1.00000,  -14.8934,  'SYNDER 2',  13.800,  27
3119,  1,  0.000,  0.000,  0.000,  0.000,  3,  1.01881,  -75.3586,  'BRACKETT',  115.00,  28
3120,  1,  -7.511,  0.000,  0.000,  0.000,  3,  1.01897,  -74.9821,  'BRACKETT',  13.800,  28
3122,  2,  26.331,  1.037,  0.000,  0.000,  3,  1.00000,  -11.3891,  'ROSCOE 1',  18.000,  27
3123,  1,  0.000,  0.000,  0.000,  0.000,  3,  1.00640,  -78.0816,  'UVALDE 0',  115.00,  28
3124,  1,  0.001,  -47.537,  0.000,  0.000,  3,  1.02780,  -76.7824,  'FREDERIC',  115.00,  28
3126,  1,  -0.002,  -46.319,  0.000,  0.000,  3,  1.01455,  -80.8934,  'SABINAL ',  115.00,  28
3127,  2,  18.679,  -3.287,  0.000,  0.000,  3,  1.02087,  -19.3851,  'SWEETWAT',  115.00,  27
3129,  2,  33.272,  -56.773,  0.000,  0.000,  3,  1.02796,  -20.1075,  'ROSCOE 3',  115.00,  27
3131,  2,  107.393,  -16.204,  0.000,  0.000,  3,  1.02000,  -24.4659,  'TUSOCOLA',  115.00,  27
3132,  1,  0.000,  0.000,  0.000,  0.000,  3,  1.01438,  -41.9816,  'EDEN 0  ',  115.00,  28
3137,  2,  108.311,  -25.838,  0.000,  0.000,  3,  1.02584,  -25.9765,  'SWEETWAT',  115.00,  27
3138,  1,  0.000,  0.000,  0.000,  0.000,  3,  1.02618,  -40.9699,  'MENARD 0',  115.00,  28
3141,  2,  31.204,  -21.997,  0.000,  0.000,  3,  1.02230,  -20.7109,  'SWEETWAT',  115.00,  27
3142,  1,  51.960,  -38.701,  0.000,  0.000,  3,  1.02998,  -42.2289,  'GOODFELL',  115.00,  27
3143,  1,  0.000,  -17.552,  0.000,  0.000,  3,  1.01609,  -41.2105,  'SANTA AN',  115.00,  28
3144,  1,  0.000,  0.000,  0.000,  0.000,  3,  1.01440,  -41.7319,  'ROWENA 0',  115.00,  28
3146,  1,  0.000,  -8.214,  0.000,  0.000,  3,  1.02998,  -38.0795,  'JUNCTION',  115.00,  28
3147,  1,  -0.001,  -21.945,  0.000,  0.000,  3,  1.02997,  -64.6007,  'LAMPASAS',  115.00,  28
4002,  1,  0.000,  0.000,  0.000,  0.000,  4,  1.01596,  -75.5657,  'LAUGHLIN',  115.00,  20
4004,  1,  0.000,  0.000,  0.000,  0.000,  4,  1.01790,  -81.8803,  'LAREDO 7',  230.00,  20
4005,  1,  0.003,  -73.905,  0.000,  0.000,  4,  1.02750,  -85.3895,  'LAREDO 7',  115.00,  20
4006,  1,  0.000,  0.000,  0.000,  0.000,  4,  1.02891,  -83.9701,  'BRUNI 2 ',  115.00,  20
4008,  1,  0.000,  0.000,  0.000,  0.000,  4,  1.01599,  -73.5958,  'POTEET 0',  115.00,  20
4010,  2,  20.996,  -6.739,  0.000,  0.000,  4,  1.03000,  -82.2501,  'SARITA 3',  20.000,  21
4011,  1,  30.724,  -5.811,  0.000,  0.000,  4,  1.02280,  -87.5006,  'HEBBRONV',  115.00,  19
4014,  1,  0.000,  0.000,  0.000,  0.000,  4,  1.00214,  -74.9025,  'EAGLE PA',  230.00,  20
4015,  1,  0.002,  -76.595,  0.000,  0.000,  4,  1.01055,  -76.0177,  'EAGLE PA',  115.00,  20
4016,  1,  0.000,  0.000,  0.000,  0.000,  4,  1.02257,  -73.1947,  'CHARLOTT',  115.00,  20
4022,  1,  0.000,  0.000,  0.000,  0.000,  4,  1.01837,  -84.0939,  'ENCINAL ',  115.00,  20
4023,  1,  0.000,  0.000,  0.000,  0.000,  4,  1.02132,  -73.1662,  'MOORE 0 ',  115.00,  20
4024,  1,  0.000,  0.000,  0.000,  0.000,  4,  1.02856,  -71.0945,  'CHRISTIN',  230.00,  20
4025,  1,  0.000,  0.000,  0.000,  0.000,  4,  1.02654,  -72.4674,  'CHRISTIN',  115.00,  20
4026,  2,  0.000,  0.000,  0.000,  0.000,  4,  1.03000,  -68.8811,  'CHRISTIN',  13.800,  20
4029,  1,  17.401,  6.522,  0.000,  0.000,  4,  1.01427,  -67.3424,  'FANNIN 1',  115.00,  21
4030,  3,  -1.354,  0.103,  0.000,  0.000,  4,  1.01000,  -63.7471,  'FANNIN 2',  13.800,  21
4031,  1,  0.000,  0.000,  0.000,  0.000,  4,  1.02302,  -87.7371,  'SAN YGNA',  115.00,  20
4033,  1,  0.000,  0.000,  0.000,  0.000,  4,  1.01495,  -85.9982,  'LAREDO 6',  115.00,  20
4036,  1,  0.000,  0.000,  0.000,  0.000,  4,  1.00989,  -78.7834,  'CRYSTAL ',  115.00,  20
4043,  1,  45.479,  0.415,  0.000,  0.000,  4,  1.01357,  -91.6525,  'FALCON H',  115.00,  19
4047,  2,  19.575,  1.830,  0.000,  0.000,  4,  1.02000,  -89.8205,  'FALCON H',  13.800,  19
4050,  2,  20.822,  -7.161,  0.000,  0.000,  4,  1.01099,  -93.4892,  'SEBASTIA',  13.800,  19
4058,  2,  26.076,  3.083,  0.000,  0.000,  4,  1.03000,  -80.2755,  'GREGORY ',  13.800,  21
4059,  2,  28.005,  3.278,  0.000,  0.000,  4,  1.03000,  -80.4891,  'GREGORY ',  13.800,  21
4060,  2,  20.468,  2.026,  0.000,  0.000,  4,  1.03000,  -79.6702,  'GREGORY ',  13.800,  21
4061,  2,  26.835,  3.147,  0.000,  0.000,  4,  1.03000,  -80.0319,  'GREGORY ',  13.800,  21
4062,  2,  24.072,  2.032,  0.000,  0.000,  4,  1.03000,  -79.6312,  'GREGORY ',  13.800,  21
4063,  2,  26.397,  3.437,  0.000,  0.000,  4,  1.03000,  -80.0020,  'GREGORY ',  13.800,  21
4073,  1,  1354.925,  -227.998,  0.000,  0.000,  4,  1.02364,  -97.3931,  'MISSION ',  230.00,  19
4082,  2,  9.834,  -0.221,  0.000,  0.000,  4,  1.04000,  -83.6842,  'CORPUS C',  13.800,  21
4083,  2,  10.411,  -0.251,  0.000,  0.000,  4,  1.04000,  -83.8390,  'CORPUS C',  13.800,  21
4084,  2,  17.485,  -1.717,  0.000,  0.000,  4,  1.04000,  -84.6601,  'CORPUS C',  13.800,  21
4085,  2,  23.448,  -1.854,  0.000,  0.000,  4,  1.04000,  -83.2833,  'CORPUS C',  13.800,  21
4101,  1,  0.000,  0.000,  0.000,  0.000,  4,  1.01391,  -85.6818,  'LAREDO 3',  115.00,  20
4105,  2,  92.805,  3.131,  0.000,  0.000,  4,  1.01000,  -85.0636,  'TAFT 2 1',  18.000,  21
4113,  1,  0.000,  0.000,  0.000,  0.000,  4,  1.02525,  -83.7407,  'LAREDO 1',  230.00,  20
4114,  1,  0.000,  0.000,  0.000,  0.000,  4,  1.02038,  -85.0912,  'LAREDO 1',  115.00,  20
4115,  2,  0.000,  0.000,  0.000,  0.000,  4,  1.04000,  -82.6074,  'LAREDO 1',  13.800,  20
4116,  2,  0.000,  0.000,  0.000,  0.000,  4,  1.04000,  -82.5554,  'LAREDO 1',  13.800,  20
4117,  1,  0.000,  0.000,  0.000,  0.000,  4,  1.02442,  -73.0738,  'JOURDANT',  115.00,  20
4118,  1,  54.857,  -6.500,  0.000,  0.000,  4,  1.01274,  -88.8420,  'GEORGE W',  115.00,  21
4125,  1,  43.268,  3.405,  0.000,  0.000,  4,  1.00670,  -75.1200,  'PETTUS 0',  115.00,  21
4129,  1,  0.000,  0.000,  0.000,  0.000,  4,  1.03587,  -83.6239,  'PREMONT ',  115.00,  20
4130,  1,  -0.007,  -11.373,  0.000,  0.000,  4,  1.02999,  -85.3735,  'FREER 0 ',  115.00,  20
4131,  1,  -0.020,  -86.143,  0.000,  0.000,  4,  1.02999,  -74.4699,  'PEARSALL',  230.00,  20
4132,  1,  0.000,  0.000,  0.000,  0.000,  4,  1.02696,  -75.4029,  'PEARSALL',  115.00,  20
4133,  2,  0.000,  0.000,  0.000,  0.000,  4,  1.02999,  -74.4699,  'PEARSALL',  20.000,  20
4134,  2,  0.000,  0.000,  0.000,  0.000,  4,  1.02999,  -74.4699,  'PEARSALL',  20.000,  20
4135,  2,  0.000,  0.000,  0.000,  0.000,  4,  1.02999,  -74.4699,  'PEARSALL',  20.000,  20
4136,  2,  0.000,  0.000,  0.000,  0.000,  4,  1.02999,  -74.4699,  'PEARSALL',  20.000,  20
4137,  2,  0.000,  0.000,  0.000,  0.000,  4,  1.02999,  -74.4699,  'PEARSALL',  20.000,  20
4138,  2,  0.000,  0.000,  0.000,  0.000,  4,  1.02999,  -74.4699,  'PEARSALL',  20.000,  20
4140,  1,  148.406,  -35.273,  0.000,  0.000,  4,  1.03531,  -86.3856,  'SARITA 1',  230.00,  21
4142,  2,  0.000,  0.000,  0.000,  0.000,  4,  1.04000,  -84.5095,  'SARITA 1',  13.800,  21
4143,  1,  0.000,  0.000,  0.000,  0.000,  4,  1.01539,  -77.6881,  'DILLEY 0',  115.00,  20
4146,  1,  0.000,  0.000,  0.000,  0.000,  4,  1.02524,  -84.3501,  'LAREDO 4',  230.00,  20
4147,  1,  0.000,  -105.785,  0.000,  0.000,  4,  1.02851,  -85.7069,  'LAREDO 4',  115.00,  20
4148,  1,  0.000,  0.000,  0.000,  0.000,  4,  1.01521,  -88.3322,  'THREE RI',  115.00,  20
4153,  2,  13.992,  -22.634,  0.000,  0.000,  4,  1.04000,  -86.6805,  'ARMSTRON',  18.000,  21
4160,  2,  76.167,  11.600,  0.000,  0.000,  4,  1.03000,  -82.7561,  'CORPUS C',  13.800,  21
4161,  2,  36.230,  5.175,  0.000,  0.000,  4,  1.03000,  -81.6242,  'CORPUS C',  13.800,  21
4162,  2,  36.650,  4.460,  0.000,  0.000,  4,  1.03000,  -81.6487,  'CORPUS C',  13.800,  21
4166,  2,  21.431,  -5.663,  0.000,  0.000,  4,  1.01389,  -81.0676,  'SARITA 2',  13.800,  21
4172,  1,  0.000,  0.000,  0.000,  0.000,  4,  1.01990,  -74.4868,  'PLEASANT',  115.00,  20
4174,  1,  -0.002,  -49.254,  0.000,  0.000,  4,  1.03000,  -73.0218,  'LYTLE 0 ',  115.00,  20
4175,  1,  -0.006,  -12.045,  0.000,  0.000,  4,  1.03000,  -83.3480,  'LAREDO 2',  115.00,  20
4176,  1,  0.000,  0.000,  0.000,  0.000,  4,  1.03950,  -80.3509,  'BRUNI 1 ',  115.00,  20
4177,  2,  0.000,  0.000,  0.000,  0.000,  4,  1.04000,  -77.3272,  'BRUNI 1 ',  13.800,  20
4178,  1,  55.749,  -42.782,  0.000,  0.000,  4,  1.03003,  -76.9779,  'GOLIAD 0',  115.00,  21
4179,  1,  0.000,  0.000,  0.000,  0.000,  4,  1.02403,  -86.5079,  'SAN DIEG',  115.00,  20
4181,  2,  140.370,  -3.172,  0.000,  0.000,  4,  1.02369,  -80.6761,  'TAFT 1 0',  230.00,  21
...
 0 /End of Bus data, Begin Generator data
1004,  '1',  142.227,  -30.380,  44.940,  -30.380,  1.01000,  0,  253.200,  0.00000,  1.00000,  0.00000,  0.00000,  1.00000,  1,  100.0,  211.000,  63.300
1009,  '1',  55.605,  -11.880,  17.570,  -11.880,  1.00000,  0,  99.000,  0.00000,  1.00000,  0.00000,  0.00000,  1.00000,  1,  100.0,  82.500,  24.750
1021,  '1',  134.479,  -28.730,  42.490,  -28.730,  1.00000,  0,  239.400,  0.00000,  1.00000,  0.00000,  0.00000,  1.00000,  1,  100.0,  199.500,  59.850
1023,  '1',  121.331,  -4.471,  38.340,  -25.920,  1.01000,  0,  216.000,  0.00000,  1.00000,  0.00000,  0.00000,  1.00000,  1,  100.0,  180.000,  54.000
1026,  '1',  83.718,  -17.880,  26.450,  -17.880,  1.00000,  0,  149.040,  0.00000,  1.00000,  0.00000,  0.00000,  1.00000,  1,  100.0,  124.200,  37.260
1033,  '1',  187.389,  -5.174,  59.210,  -40.030,  1.00000,  0,  333.600,  0.00000,  1.00000,  0.00000,  0.00000,  1.00000,  1,  100.0,  278.000,  83.400
1035,  '1',  60.665,  -12.960,  19.170,  -12.960,  1.00000,  0,  108.000,  0.00000,  1.00000,  0.00000,  0.00000,  1.00000,  1,  100.0,  90.000,  27.000
1039,  '1',  99.428,  -18.639,  31.420,  -21.240,  1.00000,  0,  177.000,  0.00000,  1.00000,  0.00000,  0.00000,  1.00000,  1,  100.0,  147.500,  44.250
1042,  '1',  109.557,  -7.199,  25.960,  -17.550,  1.00000,  0,  146.280,  0.00000,  1.00000,  0.00000,  0.00000,  1.00000,  1,  100.0,  121.900,  36.570
1043,  '1',  39.635,  -8.347,  12.520,  -8.470,  1.00000,  0,  70.560,  0.00000,  1.00000,  0.00000,  0.00000,  1.00000,  1,  100.0,  58.800,  17.640
1048,  '1',  97.560,  -13.791,  165.530,  -36.100,  1.00000,  0,  390.240,  0.00000,  0.10170,  0.00000,  0.00000,  1.00000,  1,  100.0,  325.200,  97.560
1049,  '1',  97.560,  -3.377,  165.530,  -36.100,  1.00000,  0,  390.240,  0.00000,  0.13490,  0.00000,  0.00000,  1.00000,  1,  100.0,  325.200,  97.560
1053,  '1',  53.640,  -19.850,  91.010,  -19.850,  1.00000,  0,  214.560,  0.00000,  0.16870,  0.00000,  0.00000,  1.00000,  1,  100.0,  178.800,  53.640
1057,  '1',  107.850,  -17.280,  25.560,  -17.280,  1.00000,  0,  144.000,  0.00000,  1.00000,  0.00000,  0.00000,  1.00000,  1,  100.0,  120.000,  36.000
1066,  '1',  96.058,  -7.586,  30.350,  -20.520,  1.00000,  0,  171.000,  0.00000,  1.00000,  0.00000,  0.00000,  1.00000,  1,  100.0,  142.500,  42.750
1070,  '1',  108.191,  21.417,  34.190,  -23.110,  1.04000,  0,  192.600,  0.00000,  1.00000,  0.00000,  0.00000,  1.00000,  1,  100.0,  160.500,  48.150
1072,  '1',  19.414,  1.704,  97.800,  -21.330,  1.01000,  0,  230.560,  0.00000,  0.30820,  0.00000,  0.00000,  1.00000,  1,  100.0,  192.130,  57.640
1073,  '1',  57.640,  -1.818,  97.800,  -21.330,  1.01000,  0,  230.560,  0.00000,  0.19480,  0.00000,  0.00000,  1.00000,  1,  100.0,  192.130,  57.640
1074,  '1',  57.640,  1.255,  97.800,  -21.330,  1.01000,  0,  230.560,  0.00000,  0.20960,  0.00000,  0.00000,  1.00000,  1,  100.0,  192.130,  57.640
1075,  '1',  57.640,  1.824,  97.800,  -21.330,  1.01000,  0,  230.560,  0.00000,  0.12370,  0.00000,  0.00000,  1.00000,  1,  100.0,  192.130,  57.640
1076,  '1',  57.640,  3.915,  97.800,  -21.330,  1.01000,  0,  230.560,  0.00000,  0.10660,  0.00000,  0.00000,  1.00000,  1,  100.0,  192.130,  57.640
1077,  '1',  57.640,  0.849,  97.800,  -21.330,  1.01000,  0,  230.560,  0.00000,  0.15380,  0.00000,  0.00000,  1.00000,  1,  100.0,  192.130,  57.640
1081,  '1',  85.950,  12.498,  145.830,  -31.800,  1.01000,  0,  343.800,  0.00000,  0.14960,  0.00000,  0.00000,  1.00000,  1,  100.0,  286.500,  85.950
1082,  '1',  101.109,  -21.600,  31.950,  -21.600,  1.00000,  0,  180.000,  0.00000,  1.00000,  0.00000,  0.00000,  1.00000,  1,  100.0,  150.000,  45.000
1084,  '1',  77.849,  24.600,  24.600,  -16.630,  1.04000,  0,  138.600,  0.00000,  1.00000,  0.00000,  0.00000,  1.00000,  1,  100.0,  115.500,  34.650
1088,  '1',  50.554,  -2.275,  15.970,  -10.800,  1.00000,  0,  90.000,  0.00000,  1.00000,  0.00000,  0.00000,  1.00000,  1,  100.0,  75.000,  22.500
1090,  '1',  48.531,  34.875,  40.150,  -27.140,  1.02000,  0,  226.200,  0.00000,  1.00000,  0.00000,  0.00000,  1.00000,  1,  100.0,  188.500,  56.550
2004,  '1',  117.540,  -43.490,  199.430,  -43.490,  1.02000,  0,  470.160,  0.00000,  0.10640,  0.00000,  0.00000,  1.00000,  1,  100.0,  391.800,  117.540
2005,  '1',  117.540,  -42.047,  199.430,  -43.490,  1.02000,  0,  470.160,  0.00000,  0.22750,  0.00000,  0.00000,  1.00000,  1,  100.0,  391.800,  117.540
2006,  '1',  117.540,  -25.987,  199.430,  -43.490,  1.02000,  0,  470.160,  0.00000,  0.20040,  0.00000,  0.00000,  1.00000,  1,  100.0,  391.800,  117.540
2013,  '1',  38.032,  -28.890,  42.730,  -28.890,  1.00000,  0,  240.720,  0.00000,  1.00000,  0.00000,  0.00000,  1.00000,  1,  100.0,  200.600,  60.180
2019,  '1',  190.133,  -3.289,  46.430,  -31.390,  1.04000,  0,  261.600,  0.00000,  1.00000,  0.00000,  0.00000,  1.00000,  1,  100.0,  218.000,  65.400
2024,  '1',  50.000,  -18.500,  84.830,  -18.500,  1.02000,  0,  200.000,  0.00000,  0.15080,  0.00000,  0.00000,  1.00000,  1,  100.0,  166.670,  50.000
2057,  '1',  203.156,  -157.474,  335.520,  -87.840,  0.99000,  0,  864.000,  0.00000,  0.17700,  0.00000,  0.00000,  1.00000,  1,  100.0,  720.000,  216.000
2059,  '1',  52.330,  -11.520,  17.040,  -11.520,  1.00000,  0,  96.000,  0.00000,  1.00000,  0.00000,  0.00000,  1.00000,  1,  100.0,  80.000,  24.000
2062,  '1',  98.313,  -15.710,  28.840,  -19.500,  1.02000,  0,  162.480,  0.00000,  1.00000,  0.00000,  0.00000,  1.00000,  1,  100.0,  135.400,  40.620
2100,  '1',  65.560,  -21.600,  31.950,  -21.600,  1.02000,  0,  180.000,  0.00000,  1.00000,  0.00000,  0.00000,  1.00000,  1,  100.0,  150.000,  45.000
2103,  '1',  80.320,  -29.720,  136.280,  -29.720,  1.00000,  0,  321.280,  0.00000,  0.33430,  0.00000,  0.00000,  1.00000,  1,  100.0,  267.730,  80.320
2104,  '1',  80.320,  -29.720,  136.280,  -29.720,  1.00000,  0,  321.280,  0.00000,  0.31470,  0.00000,  0.00000,  1.00000,  1,  100.0,  267.730,  80.320
2105,  '1',  80.320,  -29.720,  136.280,  -29.720,  1.00000,  0,  321.280,  0.00000,  0.14160,  0.00000,  0.00000,  1.00000,  1,  100.0,  267.730,  80.320
2115,  '1',  55.410,  -20.500,  94.020,  -20.500,  1.00000,  0,  221.660,  0.00000,  0.14250,  0.00000,  0.00000,  1.00000,  1,  100.0,  184.720,  55.410
2116,  '1',  55.410,  -20.500,  94.020,  -20.500,  1.00000,  0,  221.660,  0.00000,  0.18690,  0.00000,  0.00000,  1.00000,  1,  100.0,  184.720,  55.410
2117,  '1',  55.410,  -20.500,  94.020,  -20.500,  1.00000,  0,  221.660,  0.00000,  0.32540,  0.00000,  0.00000,  1.00000,  1,  100.0,  184.720,  55.410
2118,  '1',  55.410,  -20.500,  94.020,  -20.500,  1.00000,  0,  221.660,  0.00000,  0.10610,  0.00000,  0.00000,  1.00000,  1,  100.0,  184.720,  55.410
2119,  '1',  55.410,  -20.500,  94.020,  -20.500,  1.00000,  0,  221.660,  0.00000,  0.13600,  0.00000,  0.00000,  1.00000,  1,  100.0,  184.720,  55.410
2120,  '1',  55.410,  -20.500,  94.020,  -20.500,  1.01000,  0,  221.660,  0.00000,  0.20680,  0.00000,  0.00000,  1.00000,  1,  100.0,  184.720,  55.410
2123,  '1',  47.707,  -26.160,  38.700,  -26.160,  1.00000,  0,  218.040,  0.00000,  1.00000,  0.00000,  0.00000,  1.00000,  1,  100.0,  181.700,  54.510
2127,  '1',  98.578,  -41.560,  61.470,  -41.560,  1.04000,  0,  346.320,  0.00000,  1.00000,  0.00000,  0.00000,  1.00000,  1,  100.0,  288.600,  86.580
3017,  '1',  114.258,  -6.609,  36.100,  -24.410,  1.01000,  0,  203.400,  0.00000,  1.00000,  0.00000,  0.00000,  1.00000,  1,  100.0,  169.500,  50.850
3020,  '1',  101.109,  7.226,  31.950,  -21.600,  1.03000,  0,  180.000,  0.00000,  1.00000,  0.00000,  0.00000,  1.00000,  1,  100.0,  150.000,  45.000
3028,  '1',  35.445,  25.389,  42.600,  -28.800,  1.04000,  0,  240.000,  0.00000,  1.00000,  0.00000,  0.00000,  1.00000,  1,  100.0,  200.000,  60.000
3034,  '1',  87.960,  9.254,  27.800,  -18.790,  1.03000,  0,  156.600,  0.00000,  1.00000,  0.00000,  0.00000,  1.00000,  1,  100.0,  130.500,  39.150
3039,  '1',  140.878,  38.331,  44.520,  -30.100,  1.04000,  0,  250.800,  0.00000,  1.00000,  0.00000,  0.00000,  1.00000,  1,  100.0,  209.000,  62.700
3045,  '1',  134.100,  23.451,  227.520,  -49.620,  1.04000,  0,  536.400,  0.00000,  0.14470,  0.00000,  0.00000,  1.00000,  1,  100.0,  447.000,  134.100
3048,  '1',  162.448,  51.330,  51.330,  -34.700,  1.04000,  0,  289.200,  0.00000,  1.00000,  0.00000,  0.00000,  1.00000,  1,  100.0,  241.000,  72.300
3055,  '1',  165.261,  30.137,  52.220,  -35.300,  1.04000,  0,  294.200,  0.00000,  1.00000,  0.00000,  0.00000,  1.00000,  1,  100.0,  245.170,  73.550
3056,  '1',  165.261,  20.038,  52.220,  -35.300,  1.04000,  0,  294.200,  0.00000,  1.00000,  0.00000,  0.00000,  1.00000,  1,  100.0,  245.170,  73.550
3057,  '1',  165.261,  18.582,  52.220,  -35.300,  1.04000,  0,  294.200,  0.00000,  1.00000,  0.00000,  0.00000,  1.00000,  1,  100.0,  245.170,  73.550
3060,  '1',  111.642,  10.785,  35.280,  -23.850,  1.04000,  0,  198.750,  0.00000,  1.00000,  0.00000,  0.00000,  1.00000,  1,  100.0,  165.630,  49.690
3061,  '1',  111.642,  11.559,  35.280,  -23.850,  1.04000,  0,  198.750,  0.00000,  1.00000,  0.00000,  0.00000,  1.00000,  1,  100.0,  165.630,  49.690
3062,  '1',  111.642,  16.375,  35.280,  -23.850,  1.04000,  0,  198.750,  0.00000,  1.00000,  0.00000,  0.00000,  1.00000,  1,  100.0,  165.630,  49.690
3063,  '1',  111.642,  12.385,  35.280,  -23.850,  1.04000,  0,  198.750,  0.00000,  1.00000,  0.00000,  0.00000,  1.00000,  1,  100.0,  165.630,  49.690
3065,  '1',  54.257,  -11.590,  17.150,  -11.590,  1.00000,  0,  96.600,  0.00000,  1.00000,  0.00000,  0.00000,  1.00000,  1,  100.0,  80.500,  24.150
3068,  '1',  101.109,  20.365,  31.950,  -21.600,  1.04000,  0,  180.000,  0.00000,  1.00000,  0.00000,  0.00000,  1.00000,  1,  100.0,  150.000,  45.000
3071,  '1',  114.725,  -24.510,  36.250,  -24.510,  1.00000,  0,  204.240,  0.00000,  1.00000,  0.00000,  0.00000,  1.00000,  1,  100.0,  170.200,  51.060
3074,  '1',  67.271,  -13.955,  21.260,  -14.370,  1.00000,  0,  119.760,  0.00000,  1.00000,  0.00000,  0.00000,  1.00000,  1,  100.0,  99.800,  29.940
3081,  '1',  167.841,  26.767,  53.040,  -35.860,  1.04000,  0,  298.800,  0.00000,  1.00000,  0.00000,  0.00000,  1.00000,  1,  100.0,  249.000,  74.700
3084,  '1',  156.714,  -16.002,  49.520,  -33.480,  1.00000,  0,  279.000,  0.00000,  1.00000,  0.00000,  0.00000,  1.00000,  1,  100.0,  232.500,  69.750
3086,  '1',  50.554,  -9.836,  15.970,  -10.800,  1.00000,  0,  90.000,  0.00000,  1.00000,  0.00000,  0.00000,  1.00000,  1,  100.0,  75.000,  22.500
3087,  '1',  67.406,  -10.211,  15.970,  -10.800,  1.00000,  0,  90.000,  0.00000,  1.00000,  0.00000,  0.00000,  1.00000,  1,  100.0,  75.000,  22.500
3092,  '1',  134.812,  17.073,  42.600,  -28.800,  1.04000,  0,  240.000,  0.00000,  1.00000,  0.00000,  0.00000,  1.00000,  1,  100.0,  200.000,  60.000
3095,  '1',  81.292,  9.596,  25.690,  -17.370,  1.04000,  0,  144.720,  0.00000,  1.00000,  0.00000,  0.00000,  1.00000,  1,  100.0,  120.600,  36.180
3098,  '1',  107.850,  14.840,  34.080,  -23.040,  1.04000,  0,  192.000,  0.00000,  1.00000,  0.00000,  0.00000,  1.00000,  1,  100.0,  160.000,  48.000
3106,  '1',  43.363,  -11.259,  62.477,  -2.690,  1.00000,  0,  65.880,  0.00000,  0.29220,  0.00000,  0.00000,  1.00000,  1,  100.0,  162.800,  0.000
3110,  '1',  56.621,  9.551,  17.890,  -12.100,  1.04000,  0,  100.800,  0.00000,  1.00000,  0.00000,  0.00000,  1.00000,  1,  100.0,  84.000,  25.200
3112,  '1',  50.420,  -10.770,  15.930,  -10.770,  1.00000,  0,  89.760,  0.00000,  1.00000,  0.00000,  0.00000,  1.00000,  1,  100.0,  74.800,  22.440
3113,  '1',  50.420,  -10.770,  15.930,  -10.770,  1.00000,  0,  89.760,  0.00000,  1.00000,  0.00000,  0.00000,  1.00000,  1,  100.0,  74.800,  22.440
3117,  '1',  42.466,  -7.383,  13.420,  -9.070,  1.00000,  0,  75.600,  0.00000,  1.00000,  0.00000,  0.00000,  1.00000,  1,  100.0,  63.000,  18.900
3118,  '1',  80.887,  -11.858,  25.560,  -17.280,  1.00000,  0,  144.000,  0.00000,  1.00000,  0.00000,  0.00000,  1.00000,  1,  100.0,  120.000,  36.000
3122,  '1',  132.790,  -16.445,  41.960,  -28.370,  1.00000,  0,  236.400,  0.00000,  1.00000,  0.00000,  0.00000,  1.00000,  1,  100.0,  197.000,  59.100
3127,  '1',  90.998,  -19.440,  28.760,  -19.440,  1.00000,  0,  162.000,  0.00000,  1.00000,  0.00000,  0.00000,  1.00000,  1,  100.0,  135.000,  40.500
3129,  '1',  85.273,  -18.220,  26.940,  -18.220,  1.00000,  0,  151.800,  0.00000,  1.00000,  0.00000,  0.00000,  1.00000,  1,  100.0,  126.500,  37.950
3131,  '1',  76.843,  -3.000,  24.280,  -16.420,  1.02000,  0,  136.800,  0.00000,  1.00000,  0.00000,  0.00000,  1.00000,  1,  100.0,  114.000,  34.200
3137,  '1',  68.215,  21.560,  21.560,  -14.570,  1.03000,  0,  121.440,  0.00000,  1.00000,  0.00000,  0.00000,  1.00000,  1,  100.0,  101.200,  30.360
3141,  '1',  61.672,  -13.180,  19.490,  -13.180,  1.00000,  0,  109.800,  0.00000,  1.00000,  0.00000,  0.00000,  1.00000,  1,  100.0,  91.500,  27.450
4010,  '1',  135.890,  2.786,  42.940,  -29.030,  1.03000,  0,  241.920,  0.00000,  1.00000,  0.00000,  0.00000,  1.00000,  1,  100.0,  201.600,  60.480
4026,  '1',  123.000,  4.110,  191.060,  -50.020,  1.03000,  0,  492.000,  0.00000,  0.32770,  0.00000,  0.00000,  1.00000,  1,  100.0,  410.000,  123.000
4030,  '1',  274.337,  -25.504,  290.040,  -75.930,  1.01000,  0,  746.880,  0.00000,  0.27970,  0.00000,  0.00000,  1.00000,  1,  100.0,  622.400,  186.720
4047,  '1',  42.588,  3.620,  75.102,  -3.230,  1.02000,  0,  79.200,  0.00000,  0.32270,  0.00000,  0.00000,  1.00000,  1,  100.0,  195.700,  0.000
4050,  '1',  134.812,  -28.800,  42.600,  -28.800,  1.00000,  0,  240.000,  0.00000,  1.00000,  0.00000,  0.00000,  1.00000,  1,  100.0,  200.000,  60.000
4058,  '1',  43.200,  7.485,  73.300,  -15.980,  1.03000,  0,  172.800,  0.00000,  0.13700,  0.00000,  0.00000,  1.00000,  1,  100.0,  144.000,  43.200
4059,  '1',  43.200,  8.138,  73.300,  -15.980,  1.03000,  0,  172.800,  0.00000,  0.15140,  0.00000,  0.00000,  1.00000,  1,  100.0,  144.000,  43.200
4060,  '1',  43.200,  5.177,  73.300,  -15.980,  1.03000,  0,  172.800,  0.00000,  0.13940,  0.00000,  0.00000,  1.00000,  1,  100.0,  144.000,  43.200
4061,  '1',  51.700,  7.495,  87.720,  -19.130,  1.03000,  0,  206.800,  0.00000,  0.21560,  0.00000,  0.00000,  1.00000,  1,  100.0,  172.330,  51.700
4062,  '1',  51.700,  5.318,  87.720,  -19.130,  1.03000,  0,  206.800,  0.00000,  0.25930,  0.00000,  0.00000,  1.00000,  1,  100.0,  172.330,  51.700
4063,  '1',  51.700,  8.024,  87.720,  -19.130,  1.03000,  0,  206.800,  0.00000,  0.14410,  0.00000,  0.00000,  1.00000,  1,  100.0,  172.330,  51.700
4082,  '1',  73.020,  10.831,  123.890,  -27.020,  1.04000,  0,  292.080,  0.00000,  0.13810,  0.00000,  0.00000,  1.00000,  1,  100.0,  243.400,  73.020
4083,  '1',  73.020,  11.710,  123.890,  -27.020,  1.04000,  0,  292.080,  0.00000,  0.15700,  0.00000,  0.00000,  1.00000,  1,  100.0,  243.400,  73.020
4084,  '1',  73.020,  22.070,  123.890,  -27.020,  1.04000,  0,  292.080,  0.00000,  0.19110,  0.00000,  0.00000,  1.00000,  1,  100.0,  243.400,  73.020
4085,  '1',  204.160,  25.447,  179.170,  -39.070,  1.04000,  0,  422.400,  0.00000,  0.31920,  0.00000,  0.00000,  1.00000,  1,  100.0,  352.000,  105.600
4105,  '1',  31.901,  -8.901,  38.340,  -25.920,  1.01000,  0,  216.000,  0.00000,  1.00000,  0.00000,  0.00000,  1.00000,  1,  100.0,  180.000,  54.000
4115,  '1',  39.540,  28.021,  67.090,  -14.630,  1.04000,  0,  158.160,  0.00000,  0.11310,  0.00000,  0.00000,  1.00000,  1,  100.0,  131.800,  39.540
4116,  '1',  39.540,  26.246,  67.090,  -14.630,  1.04000,  0,  158.160,  0.00000,  0.15150,  0.00000,  0.00000,  1.00000,  1,  100.0,  131.800,  39.540
4133,  '1',  0.000,  0.000,  17.100,  -3.730,  1.00000,  0,  40.320,  0.00000,  0.22730,  0.00000,  0.00000,  1.00000,  0,  100.0,  33.600,  10.080
4134,  '1',  0.000,  -3.730,  17.100,  -3.730,  1.00000,  0,  40.320,  0.00000,  0.18000,  0.00000,  0.00000,  1.00000,  0,  100.0,  33.600,  10.080
4135,  '1',  0.000,  -3.730,  17.100,  -3.730,  1.00000,  0,  40.320,  0.00000,  0.10840,  0.00000,  0.00000,  1.00000,  0,  100.0,  33.600,  10.080
4136,  '1',  0.000,  -3.730,  17.100,  -3.730,  1.00000,  0,  40.320,  0.00000,  0.18960,  0.00000,  0.00000,  1.00000,  0,  100.0,  33.600,  10.080
4137,  '1',  0.000,  0.000,  34.200,  -7.460,  1.00000,  0,  80.640,  0.00000,  0.27350,  0.00000,  0.00000,  1.00000,  0,  100.0,  67.200,  20.160
4138,  '1',  0.000,  0.000,  33.590,  -7.330,  1.00000,  0,  79.200,  0.00000,  0.16760,  0.00000,  0.00000,  1.00000,  0,  100.0,  66.000,  19.800
4142,  '1',  126.723,  17.119,  40.040,  -27.070,  1.04000,  0,  225.600,  0.00000,  1.00000,  0.00000,  0.00000,  1.00000,  1,  100.0,  188.000,  56.400
4153,  '1',  190.894,  37.667,  60.320,  -40.780,  1.04000,  0,  339.840,  0.00000,  1.00000,  0.00000,  0.00000,  1.00000,  1,  100.0,  283.200,  84.960
4160,  '1',  59.330,  21.554,  100.660,  -21.950,  1.03000,  0,  237.320,  0.00000,  0.18820,  0.00000,  0.00000,  1.00000,  1,  100.0,  197.770,  59.330
4161,  '1',  59.330,  9.277,  100.660,  -21.950,  1.03000,  0,  237.320,  0.00000,  0.12390,  0.00000,  0.00000,  1.00000,  1,  100.0,  197.770,  59.330
4162,  '1',  59.330,  8.135,  100.660,  -21.950,  1.03000,  0,  237.320,  0.00000,  0.17220,  0.00000,  0.00000,  1.00000,  1,  100.0,  197.770,  59.330
4166,  '1',  135.486,  -28.940,  42.810,  -28.940,  1.00000,  0,  241.200,  0.00000,  1.00000,  0.00000,  0.00000,  1.00000,  1,  100.0,  201.000,  60.300
4177,  '1',  101.109,  -1.166,  31.950,  -21.600,  1.04000,  0,  180.000,  0.00000,  1.00000,  0.00000,  0.00000,  1.00000,  1,  100.0,  150.000,  45.000
4181,  '1',  35.462,  42.620,  42.620,  -28.810,  1.04000,  0,  240.120,  0.00000,  1.00000,  0.00000,  0.00000,  1.00000,  1,  100.0,  200.100,  60.030
4183,  '1',  136.834,  43.240,  43.240,  -29.230,  1.03000,  0,  243.600,  0.00000,  1.00000,  0.00000,  0.00000,  1.00000,  1,  100.0,  203.000,  60.900
4192,  '1',  405.690,  9.084,  688.320,  -150.120,  1.02000,  0,  1622.76,  0.00000,  0.14340,  0.00000,  0.00000,  1.00000,  1,  100.0,  1352.31,  405.690
4194,  '1',  135.890,  9.568,  42.940,  -29.030,  1.02000,  0,  241.920,  0.00000,  1.00000,  0.00000,  0.00000,  1.00000,  1,  100.0,  201.600,  60.480
4195,  '1',  62.013,  -13.250,  19.600,  -13.250,  1.00000,  0,  110.400,  0.00000,  1.00000,  0.00000,  0.00000,  1.00000,  1,  100.0,  92.000,  27.600
5037,  '1',  222.100,  -34.240,  157.010,  -34.240,  1.02000,  0,  370.160,  0.00000,  0.29910,  0.00000,  0.00000,  1.00000,  1,  100.0,  308.470,  92.540
5038,  '1',  222.100,  -34.240,  157.010,  -34.240,  1.02000,  0,  370.160,  0.00000,  0.12330,  0.00000,  0.00000,  1.00000,  1,  100.0,  308.470,  92.540
5039,  '1',  222.100,  -34.240,  157.010,  -34.240,  1.02000,  0,  370.160,  0.00000,  0.21470,  0.00000,  0.00000,  1.00000,  1,  100.0,  308.470,  92.540
5040,  '1',  222.100,  -34.240,  157.010,  -34.240,  1.02000,  0,  370.160,  0.00000,  0.19240,  0.00000,  0.00000,  1.00000,  1,  100.0,  308.470,  92.540
5041,  '1',  222.100,  -34.240,  157.010,  -34.240,  1.02000,  0,  370.160,  0.00000,  0.11590,  0.00000,  0.00000,  1.00000,  1,  100.0,  308.470,  92.540
5042,  '1',  222.100,  -34.240,  157.010,  -34.240,  1.02000,  0,  370.160,  0.00000,  0.19130,  0.00000,  0.00000,  1.00000,  1,  100.0,  308.470,  92.540
5057,  '1',  184.050,  -35.230,  161.530,  -35.230,  1.00000,  0,  380.820,  0.00000,  0.19130,  0.00000,  0.00000,  1.00000,  1,  100.0,  317.350,  95.200
5058,  '1',  184.060,  -35.230,  161.530,  -35.230,  1.00000,  0,  380.820,  0.00000,  0.29820,  0.00000,  0.00000,  1.00000,  1,  100.0,  317.350,  95.200
5067,  '1',  254.200,  3.618,  223.080,  -48.650,  1.03000,  0,  525.920,  0.00000,  0.32610,  0.00000,  0.00000,  1.00000,  1,  100.0,  438.270,  131.480
5068,  '1',  254.200,  2.417,  223.080,  -48.650,  1.03000,  0,  525.920,  0.00000,  0.11690,  0.00000,  0.00000,  1.00000,  1,  100.0,  438.270,  131.480
5069,  '1',  254.200,  1.852,  223.080,  -48.650,  1.03000,  0,  525.920,  0.00000,  0.10560,  0.00000,  0.00000,  1.00000,  1,  100.0,  438.270,  131.480
5166,  '1',  37.950,  30.903,  64.390,  -14.040,  1.04000,  0,  151.800,  0.00000,  0.13910,  0.00000,  0.00000,  1.00000,  1,  100.0,  126.500,  37.950
5206,  '1',  144.230,  -27.600,  126.570,  -27.600,  1.01000,  0,  298.400,  0.00000,  0.11980,  0.00000,  0.00000,  1.00000,  1,  100.0,  248.670,  74.600
5207,  '1',  144.230,  -27.600,  126.570,  -27.600,  1.01000,  0,  298.400,  0.00000,  0.18090,  0.00000,  0.00000,  1.00000,  1,  100.0,  248.670,  74.600
5208,  '1',  144.230,  -27.600,  126.570,  -27.600,  1.01000,  0,  298.400,  0.00000,  0.10560,  0.00000,  0.00000,  1.00000,  1,  100.0,  248.670,  74.600
5238,  '1',  39.876,  -32.400,  47.930,  -32.400,  1.00000,  0,  270.000,  0.00000,  1.00000,  0.00000,  0.00000,  1.00000,  1,  100.0,  225.000,  67.500
5262,  '1',  1215.000,  -99.630,  447.120,  -99.630,  1.01000,  0,  1458.00,  0.00000,  0.26310,  0.00000,  0.00000,  1.00000,  1,  100.0,  1215.00,  364.500
5263,  '1',  1215.000,  -99.630,  447.120,  -99.630,  1.01000,  0,  1458.00,  0.00000,  0.16260,  0.00000,  0.00000,  1.00000,  1,  100.0,  1215.00,  364.500
5281,  '1',  80.320,  -29.720,  136.280,  -29.720,  1.00000,  0,  321.280,  0.00000,  0.10660,  0.00000,  0.00000,  1.00000,  1,  100.0,  267.730,  80.320
5282,  '1',  80.320,  -29.720,  136.280,  -29.720,  1.00000,  0,  321.280,  0.00000,  0.23940,  0.00000,  0.00000,  1.00000,  1,  100.0,  267.730,  80.320
5283,  '1',  80.320,  -29.720,  136.280,  -29.720,  1.00000,  0,  321.280,  0.00000,  0.10650,  0.00000,  0.00000,  1.00000,  1,  100.0,  267.730,  80.320
5298,  '1',  34.500,  58.530,  58.530,  -12.760,  1.04000,  0,  138.000,  0.00000,  0.13260,  0.00000,  0.00000,  1.00000,  1,  100.0,  115.000,  34.500
5299,  '1',  34.500,  32.476,  58.530,  -12.760,  1.04000,  0,  138.000,  0.00000,  0.32280,  0.00000,  0.00000,  1.00000,  1,  100.0,  115.000,  34.500
5300,  '1',  34.500,  39.184,  58.530,  -12.760,  1.04000,  0,  138.000,  0.00000,  0.21910,  0.00000,  0.00000,  1.00000,  1,  100.0,  115.000,  34.500
5302,  '1',  139.130,  40.663,  236.050,  -51.480,  1.04000,  0,  556.500,  0.00000,  0.13300,  0.00000,  0.00000,  1.00000,  1,  100.0,  463.750,  139.130
5303,  '1',  139.130,  54.954,  236.050,  -51.480,  1.04000,  0,  556.500,  0.00000,  0.17920,  0.00000,  0.00000,  1.00000,  1,  100.0,  463.750,  139.130
5319,  '1',  78.840,  -29.170,  133.770,  -29.170,  1.01000,  0,  315.360,  0.00000,  0.25070,  0.00000,  0.00000,  1.00000,  1,  100.0,  262.800,  78.840
5320,  '1',  78.840,  -29.170,  133.770,  -29.170,  1.01000,  0,  315.360,  0.00000,  0.28140,  0.00000,  0.00000,  1.00000,  1,  100.0,  262.800,  78.840
5321,  '1',  78.840,  -29.170,  133.770,  -29.170,  1.01000,  0,  315.360,  0.00000,  0.12810,  0.00000,  0.00000,  1.00000,  1,  100.0,  262.800,  78.840
5324,  '1',  204.530,  44.520,  144.590,  -31.530,  1.04000,  0,  340.880,  0.00000,  0.21670,  0.00000,  0.00000,  1.00000,  1,  100.0,  284.070,  85.220
5325,  '1',  204.530,  45.991,  144.590,  -31.530,  1.04000,  0,  340.880,  0.00000,  0.15030,  0.00000,  0.00000,  1.00000,  1,  100.0,  284.070,  85.220
5326,  '1',  204.530,  125.869,  144.590,  -31.530,  1.04000,  0,  340.880,  0.00000,  0.18810,  0.00000,  0.00000,  1.00000,  1,  100.0,  284.070,  85.220
5343,  '1',  45.155,  22.313,  79.667,  -3.430,  1.04000,  0,  84.000,  0.00000,  0.24140,  0.00000,  0.00000,  1.00000,  1,  100.0,  207.500,  0.000
5360,  '1',  326.347,  -121.174,  469.730,  -122.980,  1.01000,  0,  1209.60,  0.00000,  0.25510,  0.00000,  0.00000,  1.00000,  1,  100.0,  1008.00,  302.400
5364,  '1',  123.730,  -23.680,  108.590,  -23.680,  1.00000,  0,  256.000,  0.00000,  0.13030,  0.00000,  0.00000,  1.00000,  1,  100.0,  213.330,  64.000
5365,  '1',  123.730,  -23.680,  108.590,  -23.680,  1.00000,  0,  256.000,  0.00000,  0.11650,  0.00000,  0.00000,  1.00000,  1,  100.0,  213.330,  64.000
5366,  '1',  123.730,  -23.680,  108.590,  -23.680,  1.00000,  0,  256.000,  0.00000,  0.15490,  0.00000,  0.00000,  1.00000,  1,  100.0,  213.330,  64.000
5367,  '1',  123.730,  -23.680,  108.590,  -23.680,  1.00000,  0,  256.000,  0.00000,  0.10020,  0.00000,  0.00000,  1.00000,  1,  100.0,  213.330,  64.000
5368,  '1',  123.730,  -23.680,  108.590,  -23.680,  1.00000,  0,  256.000,  0.00000,  0.36180,  0.00000,  0.00000,  1.00000,  1,  100.0,  213.330,  64.000
5369,  '1',  123.730,  -23.680,  108.590,  -23.680,  1.00000,  0,  256.000,  0.00000,  0.24440,  0.00000,  0.00000,  1.00000,  1,  100.0,  213.330,  64.000
5382,  '1',  121.220,  75.484,  106.380,  -23.200,  1.04000,  0,  250.800,  0.00000,  0.24770,  0.00000,  0.00000,  1.00000,  1,  100.0,  209.000,  62.700
5383,  '1',  121.220,  66.368,  106.380,  -23.200,  1.04000,  0,  250.800,  0.00000,  0.39820,  0.00000,  0.00000,  1.00000,  1,  100.0,  209.000,  62.700
5403,  '1',  0.000,  45.500,  45.500,  -9.920,  1.03000,  0,  107.280,  0.00000,  0.19850,  0.00000,  0.00000,  1.00000,  0,  100.0,  89.400,  26.820
5404,  '1',  0.000,  45.500,  45.500,  -9.920,  1.03000,  0,  107.280,  0.00000,  0.13470,  0.00000,  0.00000,  1.00000,  0,  100.0,  89.400,  26.820
5405,  '1',  0.000,  45.500,  45.500,  -9.920,  1.03000,  0,  107.280,  0.00000,  0.14170,  0.00000,  0.00000,  1.00000,  0,  100.0,  89.400,  26.820
5406,  '1',  0.000,  45.500,  45.500,  -9.920,  1.03000,  0,  107.280,  0.00000,  0.12270,  0.00000,  0.00000,  1.00000,  0,  100.0,  89.400,  26.820
5415,  '1',  36.600,  -13.540,  62.100,  -13.540,  1.00000,  0,  146.400,  0.00000,  0.14030,  0.00000,  0.00000,  1.00000,  1,  100.0,  122.000,  36.600
5416,  '1',  36.600,  -13.540,  62.100,  -13.540,  1.00000,  0,  146.400,  0.00000,  0.26480,  0.00000,  0.00000,  1.00000,  1,  100.0,  122.000,  36.600
5417,  '1',  36.600,  -13.540,  62.100,  -13.540,  1.00000,  0,  146.400,  0.00000,  0.16960,  0.00000,  0.00000,  1.00000,  1,  100.0,  122.000,  36.600
5418,  '1',  35.640,  -13.190,  60.470,  -13.190,  1.00000,  0,  142.560,  0.00000,  0.34000,  0.00000,  0.00000,  1.00000,  1,  100.0,  118.800,  35.640
5419,  '1',  35.640,  -13.190,  60.470,  -13.190,  1.00000,  0,  142.560,  0.00000,  0.16420,  0.00000,  0.00000,  1.00000,  1,  100.0,  118.800,  35.640
5444,  '1',  604.980,  -223.840,  1026.440,  -223.840,  1.01000,  0,  2419.92,  0.00000,  0.34260,  0.00000,  0.00000,  1.00000,  1,  100.0,  2016.60,  604.980
6006,  '1',  63.900,  16.310,  108.420,  -23.640,  1.04000,  0,  255.600,  0.00000,  0.18770,  0.00000,  0.00000,  1.00000,  1,  100.0,  213.000,  63.900
6007,  '1',  247.080,  25.381,  216.830,  -47.290,  1.04000,  0,  511.200,  0.00000,  0.13420,  0.00000,  0.00000,  1.00000,  1,  100.0,  426.000,  127.800
6008,  '1',  59.500,  14.322,  100.950,  -22.010,  1.04000,  0,  238.000,  0.00000,  0.20160,  0.00000,  0.00000,  1.00000,  1,  100.0,  198.330,  59.500
6009,  '1',  59.500,  8.469,  100.950,  -22.010,  1.04000,  0,  238.000,  0.00000,  0.18430,  0.00000,  0.00000,  1.00000,  1,  100.0,  198.330,  59.500
6010,  '1',  59.500,  11.838,  100.950,  -22.010,  1.04000,  0,  238.000,  0.00000,  0.15620,  0.00000,  0.00000,  1.00000,  1,  100.0,  198.330,  59.500
6042,  '1',  69.681,  8.193,  122.908,  -5.290,  1.04000,  0,  129.600,  0.00000,  0.18770,  0.00000,  0.00000,  1.00000,  1,  100.0,  320.200,  0.000
6048,  '1',  0.000,  0.000,  1.730,  -0.380,  1.04000,  0,  4.080,  0.00000,  0.11720,  0.00000,  0.00000,  1.00000,  0,  100.0,  3.400,  1.020
6049,  '1',  0.000,  4.890,  4.890,  -1.070,  1.04000,  0,  11.520,  0.00000,  0.18260,  0.00000,  0.00000,  1.00000,  0,  100.0,  9.600,  2.880
6050,  '1',  0.000,  0.000,  2.240,  -0.490,  1.04000,  0,  5.280,  0.00000,  0.36280,  0.00000,  0.00000,  1.00000,  0,  100.0,  4.400,  1.320
6052,  '1',  0.000,  29.220,  29.220,  -6.370,  1.04000,  0,  68.880,  0.00000,  0.12090,  0.00000,  0.00000,  1.00000,  0,  100.0,  57.400,  17.220
6069,  '1',  54.410,  -11.564,  92.320,  -20.130,  1.03000,  0,  217.640,  0.00000,  0.22480,  0.00000,  0.00000,  1.00000,  1,  100.0,  181.370,  54.410
6070,  '1',  54.410,  -4.820,  92.320,  -20.130,  1.03000,  0,  217.640,  0.00000,  0.24660,  0.00000,  0.00000,  1.00000,  1,  100.0,  181.370,  54.410
6071,  '1',  54.410,  -14.090,  92.320,  -20.130,  1.03000,  0,  217.640,  0.00000,  0.15280,  0.00000,  0.00000,  1.00000,  1,  100.0,  181.370,  54.410
6072,  '1',  54.410,  -5.624,  92.320,  -20.130,  1.03000,  0,  217.640,  0.00000,  0.19250,  0.00000,  0.00000,  1.00000,  1,  100.0,  181.370,  54.410
6073,  '1',  54.410,  -8.697,  92.320,  -20.130,  1.03000,  0,  217.640,  0.00000,  0.14260,  0.00000,  0.00000,  1.00000,  1,  100.0,  181.370,  54.410
6074,  '1',  54.410,  -9.116,  92.320,  -20.130,  1.03000,  0,  217.640,  0.00000,  0.11150,  0.00000,  0.00000,  1.00000,  1,  100.0,  181.370,  54.410
6078,  '1',  169.000,  -68.730,  262.510,  -68.730,  1.00000,  0,  676.000,  0.00000,  0.28900,  0.00000,  0.00000,  1.00000,  1,  100.0,  563.330,  169.000
6079,  '1',  169.000,  -68.730,  262.510,  -68.730,  1.00000,  0,  676.000,  0.00000,  0.25330,  0.00000,  0.00000,  1.00000,  1,  100.0,  563.330,  169.000
6080,  '1',  169.000,  -68.730,  262.510,  -68.730,  1.00000,  0,  676.000,  0.00000,  0.32510,  0.00000,  0.00000,  1.00000,  1,  100.0,  563.330,  169.000
6104,  '1',  0.000,  30.790,  30.790,  -6.720,  1.04000,  0,  72.600,  0.00000,  0.21100,  0.00000,  0.00000,  1.00000,  0,  100.0,  60.500,  18.150
6105,  '1',  0.000,  30.790,  30.790,  -6.720,  1.04000,  0,  72.600,  0.00000,  0.31280,  0.00000,  0.00000,  1.00000,  0,  100.0,  60.500,  18.150
6106,  '1',  36.300,  61.590,  61.590,  -13.430,  1.04000,  0,  145.200,  0.00000,  0.12010,  0.00000,  0.00000,  1.00000,  1,  100.0,  121.000,  36.300
6110,  '1',  177.180,  30.454,  275.220,  -72.050,  1.04000,  0,  708.720,  0.00000,  0.16800,  0.00000,  0.00000,  1.00000,  1,  100.0,  590.600,  177.180
6111,  '1',  198.450,  30.992,  308.260,  -80.700,  1.04000,  0,  793.800,  0.00000,  0.21900,  0.00000,  0.00000,  1.00000,  1,  100.0,  661.500,  198.450
6144,  '1',  0.000,  -0.930,  4.280,  -0.930,  1.03000,  0,  10.080,  0.00000,  0.21910,  0.00000,  0.00000,  1.00000,  0,  100.0,  8.400,  2.520
6145,  '1',  258.680,  -7.772,  227.010,  -49.510,  1.03000,  0,  535.200,  0.00000,  0.14770,  0.00000,  0.00000,  1.00000,  1,  100.0,  446.000,  133.800
6146,  '1',  258.680,  -8.044,  227.010,  -49.510,  1.03000,  0,  535.200,  0.00000,  0.11950,  0.00000,  0.00000,  1.00000,  1,  100.0,  446.000,  133.800
...
 0 /End of Generator data, Begin Branch data
1004,  1023,  '99',  0.01141,  0.34548,  0.00000,  0.00,  0.00,  0.00,  0.00000,  0.000,  0.00000,  0.00000,  0.00000,  0.00000,  1
1004,  1057,  '99',  0.62091,  4.24168,  0.00000,  0.00,  0.00,  0.00,  0.00000,  0.000,  0.00000,  0.00000,  0.00000,  0.00000,  1
1004,  2019,  '99',  0.12259,  1.17188,  0.00000,  0.00,  0.00,  0.00,  0.00000,  0.000,  0.00000,  0.00000,  0.00000,  0.00000,  1
1004,  2062,  '99',  0.94072,  4.55850,  0.00000,  0.00,  0.00,  0.00,  0.00000,  0.000,  0.00000,  0.00000,  0.00000,  0.00000,  1
1004,  2100,  '99',  0.05236,  0.64364,  0.00000,  0.00,  0.00,  0.00,  0.00000,  0.000,  0.00000,  0.00000,  0.00000,  0.00000,  1
1004,  2127,  '99',  0.17525,  1.00054,  0.00000,  0.00,  0.00,  0.00,  0.00000,  0.000,  0.00000,  0.00000,  0.00000,  0.00000,  1
1004,  3034,  '99',  0.41075,  3.14794,  0.00000,  0.00,  0.00,  0.00,  0.00000,  0.000,  0.00000,  0.00000,  0.00000,  0.00000,  1
1004,  3039,  '99',  0.03313,  0.33861,  0.00000,  0.00,  0.00,  0.00,  0.00000,  0.000,  0.00000,  0.00000,  0.00000,  0.00000,  1
1004,  3048,  '99',  0.04455,  0.33216,  0.00000,  0.00,  0.00,  0.00,  0.00000,  0.000,  0.00000,  0.00000,  0.00000,  0.00000,  1
1004,  3081,  '99',  0.04045,  0.42853,  0.00000,  0.00,  0.00,  0.00,  0.00000,  0.000,  0.00000,  0.00000,  0.00000,  0.00000,  1
1004,  3086,  '99',  0.55734,  4.01462,  0.00000,  0.00,  0.00,  0.00,  0.00000,  0.000,  0.00000,  0.00000,  0.00000,  0.00000,  1
1004,  3087,  '99',  0.55734,  4.01462,  0.00000,  0.00,  0.00,  0.00,  0.00000,  0.000,  0.00000,  0.00000,  0.00000,  0.00000,  1
1004,  3098,  '99',  0.03028,  0.47056,  0.00000,  0.00,  0.00,  0.00,  0.00000,  0.000,  0.00000,  0.00000,  0.00000,  0.00000,  1
1004,  3110,  '99',  0.06281,  0.51390,  0.00000,  0.00,  0.00,  0.00,  0.00000,  0.000,  0.00000,  0.00000,  0.00000,  0.00000,  1
1004,  3117,  '99',  0.42499,  4.16254,  0.00000,  0.00,  0.00,  0.00,  0.00000,  0.000,  0.00000,  0.00000,  0.00000,  0.00000,  1
1004,  3118,  '99',  0.35785,  2.86831,  0.00000,  0.00,  0.00,  0.00,  0.00000,  0.000,  0.00000,  0.00000,  0.00000,  0.00000,  1
1004,  3129,  '99',  1.40891,  4.42743,  0.00000,  0.00,  0.00,  0.00,  0.00000,  0.000,  0.00000,  0.00000,  0.00000,  0.00000,  1
1009,  1012,  '99',  0.31821,  2.52921,  0.00000,  0.00,  0.00,  0.00,  0.00000,  0.000,  0.00000,  0.00000,  0.00000,  0.00000,  1
1009,  1033,  '99',  0.08820,  0.79194,  0.00000,  0.00,  0.00,  0.00,  0.00000,  0.000,  0.00000,  0.00000,  0.00000,  0.00000,  1
1009,  1046,  '99',  0.20047,  1.76073,  0.00000,  0.00,  0.00,  0.00,  0.00000,  0.000,  0.00000,  0.00000,  0.00000,  0.00000,  1
1009,  1070,  '99',  -0.01111,  0.43787,  0.00000,  0.00,  0.00,  0.00,  0.00000,  0.000,  0.00000,  0.00000,  0.00000,  0.00000,  1
1009,  1082,  '99',  0.10525,  0.49972,  0.00000,  0.00,  0.00,  0.00,  0.00000,  0.000,  0.00000,  0.00000,  0.00000,  0.00000,  1
1009,  1088,  '99',  0.64876,  2.74275,  0.00000,  0.00,  0.00,  0.00,  0.00000,  0.000,  0.00000,  0.00000,  0.00000,  0.00000,  1
1012,  1046,  '99',  0.16966,  0.61109,  0.00000,  0.00,  0.00,  0.00,  0.00000,  0.000,  0.00000,  0.00000,  0.00000,  0.00000,  1
1012,  1070,  '99',  0.10656,  1.15626,  0.00000,  0.00,  0.00,  0.00,  0.00000,  0.000,  0.00000,  0.00000,  0.00000,  0.00000,  1
1012,  1082,  '99',  0.44183,  1.46846,  0.00000,  0.00,  0.00,  0.00,  0.00000,  0.000,  0.00000,  0.00000,  0.00000,  0.00000,  1
1012,  -3051,  '1',  0.05710,  0.24977,  0.03804,  149.00,  0.00,  0.00,  0.00000,  0.000,  0.00000,  0.00000,  0.00000,  0.00000,  1
1021,  1026,  '99',  0.01307,  0.82571,  0.00000,  0.00,  0.00,  0.00,  0.00000,  0.000,  0.00000,  0.00000,  0.00000,  0.00000,  1
1021,  1035,  '99',  0.76090,  4.71117,  0.00000,  0.00,  0.00,  0.00,  0.00000,  0.000,  0.00000,  0.00000,  0.00000,  0.00000,  1
1021,  1084,  '99',  0.01188,  0.19650,  0.00000,  0.00,  0.00,  0.00,  0.00000,  0.000,  0.00000,  0.00000,  0.00000,  0.00000,  1
1021,  3019,  '99',  0.08248,  2.96297,  0.00000,  0.00,  0.00,  0.00,  0.00000,  0.000,  0.00000,  0.00000,  0.00000,  0.00000,  1
1021,  3048,  '99',  0.57391,  4.91739,  0.00000,  0.00,  0.00,  0.00,  0.00000,  0.000,  0.00000,  0.00000,  0.00000,  0.00000,  1
1021,  3112,  '99',  0.45372,  2.37417,  0.00000,  0.00,  0.00,  0.00,  0.00000,  0.000,  0.00000,  0.00000,  0.00000,  0.00000,  1
1021,  3113,  '99',  0.45372,  2.37417,  0.00000,  0.00,  0.00,  0.00,  0.00000,  0.000,  0.00000,  0.00000,  0.00000,  0.00000,  1
1023,  2100,  '99',  0.09610,  4.32293,  0.00000,  0.00,  0.00,  0.00,  0.00000,  0.000,  0.00000,  0.00000,  0.00000,  0.00000,  1
1023,  3098,  '99',  0.01861,  3.10278,  0.00000,  0.00,  0.00,  0.00,  0.00000,  0.000,  0.00000,  0.00000,  0.00000,  0.00000,  1
1023,  3110,  '99',  0.08585,  0.92634,  0.00000,  0.00,  0.00,  0.00,  0.00000,  0.000,  0.00000,  0.00000,  0.00000,  0.00000,  1
1026,  1035,  '99',  0.50145,  3.25814,  0.00000,  0.00,  0.00,  0.00,  0.00000,  0.000,  0.00000,  0.00000,  0.00000,  0.00000,  1
1026,  1042,  '99',  0.52369,  3.61970,  0.00000,  0.00,  0.00,  0.00,  0.00000,  0.000,  0.00000,  0.00000,  0.00000,  0.00000,  1
1026,  1043,  '99',  0.54465,  4.18615,  0.00000,  0.00,  0.00,  0.00,  0.00000,  0.000,  0.00000,  0.00000,  0.00000,  0.00000,  1
1026,  1066,  '99',  0.72833,  4.77336,  0.00000,  0.00,  0.00,  0.00,  0.00000,  0.000,  0.00000,  0.00000,  0.00000,  0.00000,  1
1026,  1084,  '99',  0.07246,  0.49280,  0.00000,  0.00,  0.00,  0.00,  0.00000,  0.000,  0.00000,  0.00000,  0.00000,  0.00000,  1
1033,  1039,  '99',  0.07206,  0.91931,  0.00000,  0.00,  0.00,  0.00,  0.00000,  0.000,  0.00000,  0.00000,  0.00000,  0.00000,  1
1033,  1070,  '99',  0.19355,  1.23704,  0.00000,  0.00,  0.00,  0.00,  0.00000,  0.000,  0.00000,  0.00000,  0.00000,  0.00000,  1
1033,  1081,  '99',  0.00300,  0.03100,  0.00000,  0.00,  0.00,  0.00,  0.00000,  0.000,  0.00000,  0.00000,  0.00000,  0.00000,  1
1033,  1082,  '99',  0.11878,  0.39889,  0.00000,  0.00,  0.00,  0.00,  0.00000,  0.000,  0.00000,  0.00000,  0.00000,  0.00000,  1
1033,  1088,  '99',  0.01480,  0.51323,  0.00000,  0.00,  0.00,  0.00,  0.00000,  0.000,  0.00000,  0.00000,  0.00000,  0.00000,  1
1033,  3050,  '1',  0.01390,  0.13600,  0.26200,  647.00,  0.00,  0.00,  0.00000,  0.000,  0.00000,  0.00000,  0.00000,  0.00000,  1
1035,  1042,  '99',  0.02708,  0.81309,  0.00000,  0.00,  0.00,  0.00,  0.00000,  0.000,  0.00000,  0.00000,  0.00000,  0.00000,  1
1035,  1043,  '99',  0.01784,  0.93883,  0.00000,  0.00,  0.00,  0.00,  0.00000,  0.000,  0.00000,  0.00000,  0.00000,  0.00000,  1
1035,  1057,  '99',  0.16087,  2.64886,  0.00000,  0.00,  0.00,  0.00,  0.00000,  0.000,  0.00000,  0.00000,  0.00000,  0.00000,  1
1035,  1066,  '99',  0.06520,  1.14378,  0.00000,  0.00,  0.00,  0.00,  0.00000,  0.000,  0.00000,  0.00000,  0.00000,  0.00000,  1
1035,  1084,  '99',  0.78779,  2.59383,  0.00000,  0.00,  0.00,  0.00,  0.00000,  0.000,  0.00000,  0.00000,  0.00000,  0.00000,  1
1035,  1088,  '99',  0.05328,  0.96430,  0.00000,  0.00,  0.00,  0.00,  0.00000,  0.000,  0.00000,  0.00000,  0.00000,  0.00000,  1
1039,  1048,  '99',  0.05152,  3.39495,  0.00000,  0.00,  0.00,  0.00,  0.00000,  0.000,  0.00000,  0.00000,  0.00000,  0.00000,  1
1039,  1053,  '99',  -0.04369,  4.54322,  0.00000,  0.00,  0.00,  0.00,  0.00000,  0.000,  0.00000,  0.00000,  0.00000,  0.00000,  1
1039,  1082,  '99',  0.01235,  0.17258,  0.00000,  0.00,  0.00,  0.00,  0.00000,  0.000,  0.00000,  0.00000,  0.00000,  0.00000,  1
1039,  1088,  '99',  0.64637,  3.19499,  0.00000,  0.00,  0.00,  0.00,  0.00000,  0.000,  0.00000,  0.00000,  0.00000,  0.00000,  1
1042,  1043,  '99',  -0.02465,  0.56599,  0.00000,  0.00,  0.00,  0.00,  0.00000,  0.000,  0.00000,  0.00000,  0.00000,  0.00000,  1
1042,  1057,  '99',  0.03028,  2.04761,  0.00000,  0.00,  0.00,  0.00,  0.00000,  0.000,  0.00000,  0.00000,  0.00000,  0.00000,  1
1042,  1066,  '99',  -0.00371,  0.70005,  0.00000,  0.00,  0.00,  0.00,  0.00000,  0.000,  0.00000,  0.00000,  0.00000,  0.00000,  1
1042,  1084,  '99',  0.82109,  2.80388,  0.00000,  0.00,  0.00,  0.00,  0.00000,  0.000,  0.00000,  0.00000,  0.00000,  0.00000,  1
1042,  1088,  '99',  0.39951,  4.21847,  0.00000,  0.00,  0.00,  0.00,  0.00000,  0.000,  0.00000,  0.00000,  0.00000,  0.00000,  1
1043,  1057,  '99',  0.00116,  2.36365,  0.00000,  0.00,  0.00,  0.00,  0.00000,  0.000,  0.00000,  0.00000,  0.00000,  0.00000,  1
1043,  1066,  '99',  -0.01584,  0.80787,  0.00000,  0.00,  0.00,  0.00,  0.00000,  0.000,  0.00000,  0.00000,  0.00000,  0.00000,  1
1043,  1084,  '99',  0.90135,  3.24952,  0.00000,  0.00,  0.00,  0.00,  0.00000,  0.000,  0.00000,  0.00000,  0.00000,  0.00000,  1
1043,  1088,  '99',  0.39146,  4.87514,  0.00000,  0.00,  0.00,  0.00,  0.00000,  0.000,  0.00000,  0.00000,  0.00000,  0.00000,  1
1046,  1070,  '99',  0.06460,  0.80462,  0.00000,  0.00,  0.00,  0.00,  0.00000,  0.000,  0.00000,  0.00000,  0.00000,  0.00000,  1
1046,  1082,  '99',  0.29509,  1.02439,  0.00000,  0.00,  0.00,  0.00,  0.00000,  0.000,  0.00000,  0.00000,  0.00000,  0.00000,  1
1046,  3009,  '1',  0.05654,  0.23454,  0.03980,  149.00,  0.00,  0.00,  0.00000,  0.000,  0.00000,  0.00000,  0.00000,  0.00000,  1
1048,  1049,  '99',  -0.00079,  0.36800,  0.00000,  0.00,  0.00,  0.00,  0.00000,  0.000,  0.00000,  0.00000,  0.00000,  0.00000,  1
1048,  1053,  '99',  0.00015,  0.27511,  0.00000,  0.00,  0.00,  0.00,  0.00000,  0.000,  0.00000,  0.00000,  0.00000,  0.00000,  1
1048,  1082,  '99',  0.43128,  1.93620,  0.00000,  0.00,  0.00,  0.00,  0.00000,  0.000,  0.00000,  0.00000,  0.00000,  0.00000,  1
1048,  1090,  '99',  0.07411,  0.48550,  0.00000,  0.00,  0.00,  0.00,  0.00000,  0.000,  0.00000,  0.00000,  0.00000,  0.00000,  1
1049,  1053,  '99',  -0.01326,  0.49226,  0.00000,  0.00,  0.00,  0.00,  0.00000,  0.000,  0.00000,  0.00000,  0.00000,  0.00000,  1
1049,  1082,  '99',  0.67646,  3.48568,  0.00000,  0.00,  0.00,  0.00,  0.00000,  0.000,  0.00000,  0.00000,  0.00000,  0.00000,  1
1049,  1090,  '99',  0.10873,  0.87236,  0.00000,  0.00,  0.00,  0.00,  0.00000,  0.000,  0.00000,  0.00000,  0.00000,  0.00000,  1
...